@<TRIPOS>MOLECULE
LIG
   63    62     1     0     0
SMALL
bcc


@<TRIPOS>ATOM
      1 C           52.4970    42.6250    31.4590 c          1 LIG       0.625100
      2 C1          53.3340    43.4610    32.4200 c3         1 LIG       0.108100
      3 C2          54.6070    43.9720    31.7370 c3         1 LIG      -0.104100
      4 C3          52.8200    45.1710    33.9890 c          1 LIG       0.625100
      5 C4          51.8550    46.3360    34.2330 c3         1 LIG       0.116100
      6 C5          50.7060    45.9450    35.1610 c3         1 LIG      -0.105100
      7 C6          51.9230    47.6980    32.3010 c          1 LIG       0.612100
      8 C7          52.1140    47.3580    30.8260 c3         1 LIG       0.121100
      9 C8          53.5930    47.2780    30.4290 c3         1 LIG      -0.136100
     10 C9          52.2430    42.7290    29.0960 c3         1 LIG       0.105100
     11 C10         53.2040    43.5140    28.2050 c3         1 LIG      -0.111100
     12 C11         50.8140    42.6710    28.5480 c          1 LIG       0.640100
     13 C12         50.7860    40.9020    26.9770 c3         1 LIG       0.111100
     14 C13         49.3450    40.5500    26.6150 c3         1 LIG      -0.096100
     15 C14         51.7540    40.5800    25.8350 c          1 LIG       0.628100
     16 C15         51.6590    38.6220    24.4930 c3         1 LIG       0.106100
     17 C16         51.9990    38.6210    23.0010 c3         1 LIG      -0.096100
     18 C17         50.6160    37.5640    24.8560 c          1 LIG       0.612100
     19 C18         49.1970    35.9240    23.8950 c3         1 LIG       0.139400
     20 C19         47.8060    36.3980    23.5150 c3         1 LIG      -0.127100
     21 O           52.2010    43.3830    30.3710 os         1 LIG      -0.412900
     22 O1          52.1340    41.4890    31.6310 o          1 LIG      -0.523000
     23 O2          52.4970    44.5610    32.8330 os         1 LIG      -0.415900
     24 O3          53.7350    44.8570    34.7150 o          1 LIG      -0.531000
     25 O4          51.2770    46.7310    32.9790 os         1 LIG      -0.416900
     26 O5          52.3230    48.7330    32.7960 o          1 LIG      -0.539000
     27 O6          51.4720    46.1330    30.5470 oh         1 LIG      -0.584800
     28 O7          49.8140    42.9100    29.1840 o          1 LIG      -0.523000
     29 O8          50.8250    42.3140    27.2440 os         1 LIG      -0.426900
     30 O9          52.9140    40.9160    25.7880 o          1 LIG      -0.525000
     31 O10         51.0990    39.8930    24.8770 os         1 LIG      -0.423900
     32 O11         50.2920    37.2400    25.9740 o          1 LIG      -0.523000
     33 O12         50.1010    37.0440    23.7240 os         1 LIG      -0.441900
     34 H           51.9890    45.4470    31.0080 ho         1 LIG       0.438000
     35 H1          53.6510    42.8790    33.2600 h1         1 LIG       0.119700
     36 H2          54.3420    44.5630    30.8860 hc         1 LIG       0.062033
     37 H3          55.2010    43.1400    31.4220 hc         1 LIG       0.062033
     38 H4          55.1660    44.5690    32.4260 hc         1 LIG       0.062033
     39 H5          52.4150    47.1270    34.6870 h1         1 LIG       0.106700
     40 H6          50.1400    45.1540    34.7150 hc         1 LIG       0.068033
     41 H7          50.0710    46.7920    35.3190 hc         1 LIG       0.068033
     42 H8          51.1010    45.6150    36.0990 hc         1 LIG       0.068033
     43 H9          51.6790    48.1470    30.2490 h1         1 LIG       0.100700
     44 H10         54.0700    46.4980    30.9850 hc         1 LIG       0.060033
     45 H11         54.0710    48.2110    30.6430 hc         1 LIG       0.060033
     46 H12         53.6710    47.0690    29.3820 hc         1 LIG       0.060033
     47 H13         52.6030    41.7230    29.1520 h1         1 LIG       0.116700
     48 H14         52.8710    44.5280    28.1280 hc         1 LIG       0.061367
     49 H15         53.2290    43.0720    27.2310 hc         1 LIG       0.061367
     50 H16         54.1850    43.4920    28.6320 hc         1 LIG       0.061367
     51 H17         51.0890    40.3250    27.8260 h1         1 LIG       0.116700
     52 H18         49.0400    41.1250    25.7660 hc         1 LIG       0.062367
     53 H19         48.7050    40.7700    27.4440 hc         1 LIG       0.062367
     54 H20         49.2800    39.5080    26.3810 hc         1 LIG       0.062367
     55 H21         52.5770    38.4170    25.0030 h1         1 LIG       0.109700
     56 H22         51.1140    38.8220    22.4330 hc         1 LIG       0.061367
     57 H23         52.3900    37.6640    22.7250 hc         1 LIG       0.061367
     58 H24         52.7300    39.3760    22.8010 hc         1 LIG       0.061367
     59 H25         49.4930    35.1150    23.2600 h1         1 LIG       0.065200
     60 H26         49.2140    35.5780    24.9070 h1         1 LIG       0.065200
     61 H27         47.8100    36.7400    22.5010 hc         1 LIG       0.050367
     62 H28         47.5140    37.2000    24.1600 hc         1 LIG       0.050367
     63 H29         47.1130    35.5890    23.6160 hc         1 LIG       0.050367
@<TRIPOS>BOND
     1     1     2 1   
     2     1    21 1   
     3     1    22 2   
     4     2     3 1   
     5     2    23 1   
     6     2    35 1   
     7     3    36 1   
     8     3    37 1   
     9     3    38 1   
    10     4     5 1   
    11     4    23 1   
    12     4    24 2   
    13     5     6 1   
    14     5    25 1   
    15     5    39 1   
    16     6    40 1   
    17     6    41 1   
    18     6    42 1   
    19     7     8 1   
    20     7    25 1   
    21     7    26 2   
    22     8     9 1   
    23     8    27 1   
    24     8    43 1   
    25     9    44 1   
    26     9    45 1   
    27     9    46 1   
    28    10    11 1   
    29    10    12 1   
    30    10    21 1   
    31    10    47 1   
    32    11    48 1   
    33    11    49 1   
    34    11    50 1   
    35    12    28 2   
    36    12    29 1   
    37    13    14 1   
    38    13    15 1   
    39    13    29 1   
    40    13    51 1   
    41    14    52 1   
    42    14    53 1   
    43    14    54 1   
    44    15    30 2   
    45    15    31 1   
    46    16    17 1   
    47    16    18 1   
    48    16    31 1   
    49    16    55 1   
    50    17    56 1   
    51    17    57 1   
    52    17    58 1   
    53    18    32 2   
    54    18    33 1   
    55    19    20 1   
    56    19    33 1   
    57    19    59 1   
    58    19    60 1   
    59    20    61 1   
    60    20    62 1   
    61    20    63 1   
    62    27    34 1   
@<TRIPOS>SUBSTRUCTURE
     1 LIG         1 TEMP              0 ****  ****    0 ROOT
